DSP3.2
/76.244.45.145
Darryl
nope
!!!!
halp im on telnet
                                                                      
      
 1C
000000000
!      !
f
20
210
 
!'+!
Unspecified
Unspecified
the newbie
