DSP3.2
/70.63.65.146
SYL4U
thissucks
$&)$
asdfasdfasf
                                                                      
      
 1C
000000000
!      !
f
20
210
 
 "!%
Unspecified
Unspecified
the newbie
